Version 4
SHEET 1 880 680
WIRE -224 96 -288 96
WIRE -704 128 -704 112
WIRE -224 128 -304 128
WIRE -224 160 -464 160
WIRE 16 176 -32 176
WIRE -464 192 -464 160
WIRE -224 192 -400 192
FLAG -288 96 IN
IOPIN -288 96 In
FLAG 16 176 OUT
IOPIN 16 176 Out
FLAG 224 208 0
FLAG 352 208 0
FLAG 224 128 +vcc
FLAG -224 256 +vcc
FLAG 352 128 -vcc
FLAG -224 224 -vcc
FLAG -704 208 0
FLAG -704 112 IN
FLAG -400 256 0
FLAG -864 144 0
FLAG -864 64 V4
FLAG -464 192 0
FLAG -304 128 V4
SYMBOL lf398 -160 144 R0
SYMATTR InstName U1
SYMBOL cap -384 256 R180
WINDOW 0 24 56 Left 2
WINDOW 3 24 8 Left 2
SYMATTR InstName C1
SYMATTR Value 75p
SYMBOL voltage 224 112 R0
WINDOW 123 0 0 Left 0
WINDOW 39 0 0 Left 0
SYMATTR InstName V1
SYMATTR Value +10
SYMBOL voltage 352 112 R0
WINDOW 123 0 0 Left 0
WINDOW 39 0 0 Left 0
SYMATTR InstName V2
SYMATTR Value -10
SYMBOL voltage -704 112 R0
WINDOW 123 0 0 Left 0
WINDOW 39 0 0 Left 0
WINDOW 3 -275 115 Left 2
SYMATTR Value SINE(0 5 6.67k 0 0 01000)
SYMATTR InstName V3
SYMBOL voltage -864 48 R0
WINDOW 3 43 -19 Left 2
WINDOW 123 0 0 Left 0
WINDOW 39 0 0 Left 0
SYMATTR Value PULSE(0 6 0.01n 0.1n 0.1n 12.5u 25u)
SYMATTR InstName V4
TEXT -432 416 Left 2 !.tran 0 400u 0 1
TEXT -184 384 Left 2 !.include LF398.sub
