Version 4
SHEET 1 1368 680
WIRE -16 -80 -288 -80
WIRE 240 -80 128 -80
WIRE 560 -64 480 -64
WIRE 832 -64 720 -64
WIRE 1104 -64 976 -64
WIRE 560 -32 528 -32
WIRE 1104 96 1104 -64
WIRE 1104 96 1088 96
WIRE 1120 96 1104 96
WIRE 240 112 240 -80
WIRE 288 112 240 112
WIRE 480 112 480 -64
WIRE 480 112 432 112
WIRE 272 144 224 144
WIRE 272 176 272 144
WIRE 288 176 272 176
WIRE -288 192 -288 -80
WIRE 224 272 224 144
WIRE 528 272 528 -32
WIRE 528 272 224 272
WIRE 224 336 224 272
FLAG 928 336 vcc
FLAG 1104 352 -vcc
FLAG 928 416 0
FLAG 1104 432 0
FLAG 224 416 0
FLAG -288 272 0
FLAG 1120 96 out
FLAG 128 -16 -vcc
FLAG 128 -48 vcc
FLAG 976 -32 vcc
FLAG 976 0 -vcc
FLAG 432 144 vcc
FLAG 432 176 -vcc
SYMBOL voltage 928 320 R0
WINDOW 123 0 0 Left 0
WINDOW 39 0 0 Left 0
SYMATTR InstName V1
SYMATTR Value 15
SYMBOL voltage 1104 336 R0
WINDOW 123 0 0 Left 0
WINDOW 39 0 0 Left 0
SYMATTR InstName V2
SYMATTR Value -15
SYMBOL voltage 224 320 R0
WINDOW 123 0 0 Left 0
WINDOW 39 0 0 Left 0
SYMATTR InstName V3
SYMATTR Value PULSE(0 5 1n 1n 1n 6.67u 13.34u)
SYMBOL voltage -288 176 R0
WINDOW 123 0 0 Left 0
WINDOW 39 0 0 Left 0
SYMATTR InstName V4
SYMATTR Value SINE(0 1 2k 0 0 90)
SYMBOL analog-switch 640 -48 R0
SYMATTR InstName Llave
SYMBOL LPRauch 48 -48 R0
SYMATTR InstName FAA
SYMBOL LPRauch 896 -32 R0
SYMATTR InstName FR
SYMBOL sh 352 144 R0
SYMATTR InstName SH
TEXT -32 408 Left 2 !.tran 0 2m 0
